# AVS UCD File
# foo
# num_nodes num_cells num_node_data num_cell_data num_model_data
# nodal coordinates
# cell type, topology
13 12 1 2 0
0 -1.000000 -1.000000 0.000000
1 1.000000 -1.000000 0.000000
2 1.000000 1.000000 0.000000
3 -1.000000 1.000000 0.000000
4 0.000000 -2.000000 0.000000
5 2.000000 0.000000 0.000000
6 0.000000 2.000000 0.000000
7 -2.000000 0.000000 0.000000
8 0.000000 -1.000000 0.000000
9 1.000000 0.000000 0.000000
10 0.000000 1.000000 0.000000
11 -1.000000 0.000000 0.000000
12 0.000000 0.000000 0.000000
0 1 tri 0 4 8
1 1 tri 8 4 1
2 2 tri 1 5 9
3 2 tri 9 5 2
4 3 tri 10 2 6
5 3 tri 10 6 3
6 4 tri 7 11 3
7 4 tri 0 11 7
8 1 quad 0 8 12 11
9 1 quad 8 1 9 12
10 1 quad 12 9 2 10
11 1 quad 12 10 3 11
1 1
temperature, F
0 6.000000
1 5.000000
2 6.666667
3 8.333333
4 1.500000
5 3.500000
6 5.500000
7 7.500000
8 5.500000
9 7.000000
10 8.500000
11 9.000000
12 10.500000
2 1 1
temperature, F
pressure, p
0 1.000000 12.000000
1 2.000000 11.000000
2 3.000000 10.000000
3 4.000000 9.000000
4 5.000000 8.000000
5 6.000000 7.000000
6 7.000000 6.000000
7 8.000000 5.000000
8 9.000000 4.000000
9 10.000000 3.000000
10 11.000000 2.000000
11 12.000000 1.000000
